64
Lattice="8.766421499259819 0.0 0.0 0.0 8.766421499259819 0.0 0.0 0.0 17.574816119629908" Properties=species:S:1:pos:R:3:tags:I:1 pbc="T T F"
Nb       0.00000000       0.00000000       5.50000000        2
Nb       2.19160537       0.00000000       7.69160537        2
Nb       0.00000000       2.19160537       7.69160537        2
Nb       2.19160537       2.19160537       5.50000000        2
N        0.00000000       2.19160537       5.50000000        2
N        2.19160537       0.00000000       5.50000000        2
N        0.00000000       0.00000000       7.69160537        2
N        2.19160537       2.19160537       7.69160537        2
Nb       0.00000000       0.00000000       9.88321075        1
Nb       2.19160537       0.00000000      12.07481612        1
Nb       0.00000000       2.19160537      12.07481612        1
Nb       2.19160537       2.19160537       9.88321075        1
N        0.00000000       2.19160537       9.88321075        1
N        2.19160537       0.00000000       9.88321075        1
N        0.00000000       0.00000000      12.07481612        1
N        2.19160537       2.19160537      12.07481612        1
Nb       0.00000000       4.38321075       5.50000000        2
Nb       2.19160537       4.38321075       7.69160537        2
Nb       0.00000000       6.57481612       7.69160537        2
Nb       2.19160537       6.57481612       5.50000000        2
N        0.00000000       6.57481612       5.50000000        2
N        2.19160537       4.38321075       5.50000000        2
N        0.00000000       4.38321075       7.69160537        2
N        2.19160537       6.57481612       7.69160537        2
Nb       0.00000000       4.38321075       9.88321075        1
Nb       2.19160537       4.38321075      12.07481612        1
Nb       0.00000000       6.57481612      12.07481612        1
Nb       2.19160537       6.57481612       9.88321075        1
N        0.00000000       6.57481612       9.88321075        1
N        2.19160537       4.38321075       9.88321075        1
N        0.00000000       4.38321075      12.07481612        1
N        2.19160537       6.57481612      12.07481612        1
Nb       4.38321075       0.00000000       5.50000000        2
Nb       6.57481612       0.00000000       7.69160537        2
Nb       4.38321075       2.19160537       7.69160537        2
Nb       6.57481612       2.19160537       5.50000000        2
N        4.38321075       2.19160537       5.50000000        2
N        6.57481612       0.00000000       5.50000000        2
N        4.38321075       0.00000000       7.69160537        2
N        6.57481612       2.19160537       7.69160537        2
Nb       4.38321075       0.00000000       9.88321075        1
Nb       6.57481612       0.00000000      12.07481612        1
Nb       4.38321075       2.19160537      12.07481612        1
Nb       6.57481612       2.19160537       9.88321075        1
N        4.38321075       2.19160537       9.88321075        1
N        6.57481612       0.00000000       9.88321075        1
N        4.38321075       0.00000000      12.07481612        1
N        6.57481612       2.19160537      12.07481612        1
Nb       4.38321075       4.38321075       5.50000000        2
Nb       6.57481612       4.38321075       7.69160537        2
Nb       4.38321075       6.57481612       7.69160537        2
Nb       6.57481612       6.57481612       5.50000000        2
N        4.38321075       6.57481612       5.50000000        2
N        6.57481612       4.38321075       5.50000000        2
N        4.38321075       4.38321075       7.69160537        2
N        6.57481612       6.57481612       7.69160537        2
Nb       4.38321075       4.38321075       9.88321075        1
Nb       6.57481612       4.38321075      12.07481612        1
Nb       4.38321075       6.57481612      12.07481612        1
Nb       6.57481612       6.57481612       9.88321075        1
N        4.38321075       6.57481612       9.88321075        1
N        6.57481612       4.38321075       9.88321075        1
N        4.38321075       4.38321075      12.07481612        1
N        6.57481612       6.57481612      12.07481612        1
