64
Lattice="8.934444874941617 0.0 0.0 0.0 8.934444874941617 0.0 0.0 0.0 21.700833657470806" Properties=species:S:1:pos:R:3:tags:I:1 pbc="T T F"
Sc       0.00000000       0.00000000       7.50000000        2
Sc       2.23361122       0.00000000       9.73361122        2
Sc       0.00000000       2.23361122       9.73361122        2
Sc       2.23361122       2.23361122       7.50000000        2
N        0.00000000       2.23361122       7.50000000        2
N        2.23361122       0.00000000       7.50000000        2
N        0.00000000       0.00000000       9.73361122        2
N        2.23361122       2.23361122       9.73361122        2
Sc       0.00000000       0.00000000      11.96722244        1
Sc       2.23361122       0.00000000      14.20083366        1
Sc       0.00000000       2.23361122      14.20083366        1
Sc       2.23361122       2.23361122      11.96722244        1
N        0.00000000       2.23361122      11.96722244        1
N        2.23361122       0.00000000      11.96722244        1
N        0.00000000       0.00000000      14.20083366        1
N        2.23361122       2.23361122      14.20083366        1
Sc       0.00000000       4.46722244       7.50000000        2
Sc       2.23361122       4.46722244       9.73361122        2
Sc       0.00000000       6.70083366       9.73361122        2
Sc       2.23361122       6.70083366       7.50000000        2
N        0.00000000       6.70083366       7.50000000        2
N        2.23361122       4.46722244       7.50000000        2
N        0.00000000       4.46722244       9.73361122        2
N        2.23361122       6.70083366       9.73361122        2
Sc       0.00000000       4.46722244      11.96722244        1
Sc       2.23361122       4.46722244      14.20083366        1
Sc       0.00000000       6.70083366      14.20083366        1
Sc       2.23361122       6.70083366      11.96722244        1
N        0.00000000       6.70083366      11.96722244        1
N        2.23361122       4.46722244      11.96722244        1
N        0.00000000       4.46722244      14.20083366        1
N        2.23361122       6.70083366      14.20083366        1
Sc       4.46722244       0.00000000       7.50000000        2
Sc       6.70083366       0.00000000       9.73361122        2
Sc       4.46722244       2.23361122       9.73361122        2
Sc       6.70083366       2.23361122       7.50000000        2
N        4.46722244       2.23361122       7.50000000        2
N        6.70083366       0.00000000       7.50000000        2
N        4.46722244       0.00000000       9.73361122        2
N        6.70083366       2.23361122       9.73361122        2
Sc       4.46722244       0.00000000      11.96722244        1
Sc       6.70083366       0.00000000      14.20083366        1
Sc       4.46722244       2.23361122      14.20083366        1
Sc       6.70083366       2.23361122      11.96722244        1
N        4.46722244       2.23361122      11.96722244        1
N        6.70083366       0.00000000      11.96722244        1
N        4.46722244       0.00000000      14.20083366        1
N        6.70083366       2.23361122      14.20083366        1
Sc       4.46722244       4.46722244       7.50000000        2
Sc       6.70083366       4.46722244       9.73361122        2
Sc       4.46722244       6.70083366       9.73361122        2
Sc       6.70083366       6.70083366       7.50000000        2
N        4.46722244       6.70083366       7.50000000        2
N        6.70083366       4.46722244       7.50000000        2
N        4.46722244       4.46722244       9.73361122        2
N        6.70083366       6.70083366       9.73361122        2
Sc       4.46722244       4.46722244      11.96722244        1
Sc       6.70083366       4.46722244      14.20083366        1
Sc       4.46722244       6.70083366      14.20083366        1
Sc       6.70083366       6.70083366      11.96722244        1
N        4.46722244       6.70083366      11.96722244        1
N        6.70083366       4.46722244      11.96722244        1
N        4.46722244       4.46722244      14.20083366        1
N        6.70083366       6.70083366      14.20083366        1
