64
Lattice="9.03676777123005 0.0 0.0 0.0 9.03676777123005 0.0 0.0 0.0 21.777575825615024" Properties=species:S:1:pos:R:3:tags:I:1 pbc="T T F"
Sc       0.00000000       0.00000000       7.50000000        2
Sc       2.25919194       0.00000000       9.75919194        2
Sc       0.00000000       2.25919194       9.75919194        2
Sc       2.25919194       2.25919194       7.50000000        2
N        0.00000000       2.25919194       7.50000000        2
N        2.25919194       0.00000000       7.50000000        2
N        0.00000000       0.00000000       9.75919194        2
N        2.25919194       2.25919194       9.75919194        2
Sc       0.00000000       0.00000000      12.01838389        1
Sc       2.25919194       0.00000000      14.27757583        1
Sc       0.00000000       2.25919194      14.27757583        1
Sc       2.25919194       2.25919194      12.01838389        1
N        0.00000000       2.25919194      12.01838389        1
N        2.25919194       0.00000000      12.01838389        1
N        0.00000000       0.00000000      14.27757583        1
N        2.25919194       2.25919194      14.27757583        1
Sc       0.00000000       4.51838389       7.50000000        2
Sc       2.25919194       4.51838389       9.75919194        2
Sc       0.00000000       6.77757583       9.75919194        2
Sc       2.25919194       6.77757583       7.50000000        2
N        0.00000000       6.77757583       7.50000000        2
N        2.25919194       4.51838389       7.50000000        2
N        0.00000000       4.51838389       9.75919194        2
N        2.25919194       6.77757583       9.75919194        2
Sc       0.00000000       4.51838389      12.01838389        1
Sc       2.25919194       4.51838389      14.27757583        1
Sc       0.00000000       6.77757583      14.27757583        1
Sc       2.25919194       6.77757583      12.01838389        1
N        0.00000000       6.77757583      12.01838389        1
N        2.25919194       4.51838389      12.01838389        1
N        0.00000000       4.51838389      14.27757583        1
N        2.25919194       6.77757583      14.27757583        1
Sc       4.51838389       0.00000000       7.50000000        2
Sc       6.77757583       0.00000000       9.75919194        2
Sc       4.51838389       2.25919194       9.75919194        2
Sc       6.77757583       2.25919194       7.50000000        2
N        4.51838389       2.25919194       7.50000000        2
N        6.77757583       0.00000000       7.50000000        2
N        4.51838389       0.00000000       9.75919194        2
N        6.77757583       2.25919194       9.75919194        2
Sc       4.51838389       0.00000000      12.01838389        1
Sc       6.77757583       0.00000000      14.27757583        1
Sc       4.51838389       2.25919194      14.27757583        1
Sc       6.77757583       2.25919194      12.01838389        1
N        4.51838389       2.25919194      12.01838389        1
N        6.77757583       0.00000000      12.01838389        1
N        4.51838389       0.00000000      14.27757583        1
N        6.77757583       2.25919194      14.27757583        1
Sc       4.51838389       4.51838389       7.50000000        2
Sc       6.77757583       4.51838389       9.75919194        2
Sc       4.51838389       6.77757583       9.75919194        2
Sc       6.77757583       6.77757583       7.50000000        2
N        4.51838389       6.77757583       7.50000000        2
N        6.77757583       4.51838389       7.50000000        2
N        4.51838389       4.51838389       9.75919194        2
N        6.77757583       6.77757583       9.75919194        2
Sc       4.51838389       4.51838389      12.01838389        1
Sc       6.77757583       4.51838389      14.27757583        1
Sc       4.51838389       6.77757583      14.27757583        1
Sc       6.77757583       6.77757583      12.01838389        1
N        4.51838389       6.77757583      12.01838389        1
N        6.77757583       4.51838389      12.01838389        1
N        4.51838389       4.51838389      14.27757583        1
N        6.77757583       6.77757583      14.27757583        1
