64
Lattice="8.953701228987285 0.0 0.0 0.0 8.953701228987285 0.0 0.0 0.0 17.715275924493643" Properties=species:S:1:pos:R:3:tags:I:1 pbc="T T F"
Sc       0.00000000       0.00000000       5.50000000        2
Sc       2.23842531       0.00000000       7.73842531        2
Sc       0.00000000       2.23842531       7.73842531        2
Sc       2.23842531       2.23842531       5.50000000        2
N        0.00000000       2.23842531       5.50000000        2
N        2.23842531       0.00000000       5.50000000        2
N        0.00000000       0.00000000       7.73842531        2
N        2.23842531       2.23842531       7.73842531        2
Sc       0.00000000       0.00000000       9.97685061        1
Sc       2.23842531       0.00000000      12.21527592        1
Sc       0.00000000       2.23842531      12.21527592        1
Sc       2.23842531       2.23842531       9.97685061        1
N        0.00000000       2.23842531       9.97685061        1
N        2.23842531       0.00000000       9.97685061        1
N        0.00000000       0.00000000      12.21527592        1
N        2.23842531       2.23842531      12.21527592        1
Sc       0.00000000       4.47685061       5.50000000        2
Sc       2.23842531       4.47685061       7.73842531        2
Sc       0.00000000       6.71527592       7.73842531        2
Sc       2.23842531       6.71527592       5.50000000        2
N        0.00000000       6.71527592       5.50000000        2
N        2.23842531       4.47685061       5.50000000        2
N        0.00000000       4.47685061       7.73842531        2
N        2.23842531       6.71527592       7.73842531        2
Sc       0.00000000       4.47685061       9.97685061        1
Sc       2.23842531       4.47685061      12.21527592        1
Sc       0.00000000       6.71527592      12.21527592        1
Sc       2.23842531       6.71527592       9.97685061        1
N        0.00000000       6.71527592       9.97685061        1
N        2.23842531       4.47685061       9.97685061        1
N        0.00000000       4.47685061      12.21527592        1
N        2.23842531       6.71527592      12.21527592        1
Sc       4.47685061       0.00000000       5.50000000        2
Sc       6.71527592       0.00000000       7.73842531        2
Sc       4.47685061       2.23842531       7.73842531        2
Sc       6.71527592       2.23842531       5.50000000        2
N        4.47685061       2.23842531       5.50000000        2
N        6.71527592       0.00000000       5.50000000        2
N        4.47685061       0.00000000       7.73842531        2
N        6.71527592       2.23842531       7.73842531        2
Sc       4.47685061       0.00000000       9.97685061        1
Sc       6.71527592       0.00000000      12.21527592        1
Sc       4.47685061       2.23842531      12.21527592        1
Sc       6.71527592       2.23842531       9.97685061        1
N        4.47685061       2.23842531       9.97685061        1
N        6.71527592       0.00000000       9.97685061        1
N        4.47685061       0.00000000      12.21527592        1
N        6.71527592       2.23842531      12.21527592        1
Sc       4.47685061       4.47685061       5.50000000        2
Sc       6.71527592       4.47685061       7.73842531        2
Sc       4.47685061       6.71527592       7.73842531        2
Sc       6.71527592       6.71527592       5.50000000        2
N        4.47685061       6.71527592       5.50000000        2
N        6.71527592       4.47685061       5.50000000        2
N        4.47685061       4.47685061       7.73842531        2
N        6.71527592       6.71527592       7.73842531        2
Sc       4.47685061       4.47685061       9.97685061        1
Sc       6.71527592       4.47685061      12.21527592        1
Sc       4.47685061       6.71527592      12.21527592        1
Sc       6.71527592       6.71527592       9.97685061        1
N        4.47685061       6.71527592       9.97685061        1
N        6.71527592       4.47685061       9.97685061        1
N        4.47685061       4.47685061      12.21527592        1
N        6.71527592       6.71527592      12.21527592        1
