64
Lattice="9.119846823636943 0.0 0.0 0.0 9.119846823636943 0.0 0.0 0.0 21.83988512181847" Properties=species:S:1:pos:R:3:tags:I:1 pbc="T T F"
Zr       0.00000000       0.00000000       7.50000000        2
Zr       2.27996171       0.00000000       9.77996171        2
Zr       0.00000000       2.27996171       9.77996171        2
Zr       2.27996171       2.27996171       7.50000000        2
N        0.00000000       2.27996171       7.50000000        2
N        2.27996171       0.00000000       7.50000000        2
N        0.00000000       0.00000000       9.77996171        2
N        2.27996171       2.27996171       9.77996171        2
Zr       0.00000000       0.00000000      12.05992341        1
Zr       2.27996171       0.00000000      14.33988512        1
Zr       0.00000000       2.27996171      14.33988512        1
Zr       2.27996171       2.27996171      12.05992341        1
N        0.00000000       2.27996171      12.05992341        1
N        2.27996171       0.00000000      12.05992341        1
N        0.00000000       0.00000000      14.33988512        1
N        2.27996171       2.27996171      14.33988512        1
Zr       0.00000000       4.55992341       7.50000000        2
Zr       2.27996171       4.55992341       9.77996171        2
Zr       0.00000000       6.83988512       9.77996171        2
Zr       2.27996171       6.83988512       7.50000000        2
N        0.00000000       6.83988512       7.50000000        2
N        2.27996171       4.55992341       7.50000000        2
N        0.00000000       4.55992341       9.77996171        2
N        2.27996171       6.83988512       9.77996171        2
Zr       0.00000000       4.55992341      12.05992341        1
Zr       2.27996171       4.55992341      14.33988512        1
Zr       0.00000000       6.83988512      14.33988512        1
Zr       2.27996171       6.83988512      12.05992341        1
N        0.00000000       6.83988512      12.05992341        1
N        2.27996171       4.55992341      12.05992341        1
N        0.00000000       4.55992341      14.33988512        1
N        2.27996171       6.83988512      14.33988512        1
Zr       4.55992341       0.00000000       7.50000000        2
Zr       6.83988512       0.00000000       9.77996171        2
Zr       4.55992341       2.27996171       9.77996171        2
Zr       6.83988512       2.27996171       7.50000000        2
N        4.55992341       2.27996171       7.50000000        2
N        6.83988512       0.00000000       7.50000000        2
N        4.55992341       0.00000000       9.77996171        2
N        6.83988512       2.27996171       9.77996171        2
Zr       4.55992341       0.00000000      12.05992341        1
Zr       6.83988512       0.00000000      14.33988512        1
Zr       4.55992341       2.27996171      14.33988512        1
Zr       6.83988512       2.27996171      12.05992341        1
N        4.55992341       2.27996171      12.05992341        1
N        6.83988512       0.00000000      12.05992341        1
N        4.55992341       0.00000000      14.33988512        1
N        6.83988512       2.27996171      14.33988512        1
Zr       4.55992341       4.55992341       7.50000000        2
Zr       6.83988512       4.55992341       9.77996171        2
Zr       4.55992341       6.83988512       9.77996171        2
Zr       6.83988512       6.83988512       7.50000000        2
N        4.55992341       6.83988512       7.50000000        2
N        6.83988512       4.55992341       7.50000000        2
N        4.55992341       4.55992341       9.77996171        2
N        6.83988512       6.83988512       9.77996171        2
Zr       4.55992341       4.55992341      12.05992341        1
Zr       6.83988512       4.55992341      14.33988512        1
Zr       4.55992341       6.83988512      14.33988512        1
Zr       6.83988512       6.83988512      12.05992341        1
N        4.55992341       6.83988512      12.05992341        1
N        6.83988512       4.55992341      12.05992341        1
N        4.55992341       4.55992341      14.33988512        1
N        6.83988512       6.83988512      14.33988512        1
