8
Lattice="4.476850614493642 0.0 0.0 0.0 4.476850614493642 0.0 0.0 0.0 4.476850614493642" Properties=species:S:1:pos:R:3 pbc="T T T"
Sc       0.00000000       0.00000000       0.00000000
Sc       2.23842531       2.23842531       0.00000000
Sc       2.23842531       0.00000000       2.23842531
Sc       0.00000000       2.23842531       2.23842531
N        0.00000000       0.00000000       2.23842531
N        0.00000000       2.23842531       0.00000000
N        2.23842531       0.00000000       0.00000000
N        2.23842531       2.23842531       2.23842531
