4
Lattice="4.219416675329718 0.0 0.0 0.0 4.219416675329718 0.0 0.0 0.0 4.219416675329718" Properties=species:S:1:pos:R:3 pbc="T T T"
N        0.00000000       0.00000000       2.10970834
N        0.00000000       2.10970834       0.00000000
N        2.10970834       0.00000000       0.00000000
N        2.10970834       2.10970834       2.10970834
