8
Lattice="4.381987 0.0 0.0 0.0 4.381987 0.0 0.0 0.0 4.381987" Properties=species:S:1:pos:R:3:spacegroup_kinds:I:1 spacegroup="P 1" unit_cell=conventional occupancy="_JSON {\"0\": {\"N\": 1.0}, \"1\": {\"N\": 1.0}, \"2\": {\"N\": 1.0}, \"3\": {\"N\": 1.0}, \"4\": {\"Nb\": 1.0}, \"5\": {\"Nb\": 1.0}, \"6\": {\"Nb\": 1.0}, \"7\": {\"Nb\": 1.0}}" pbc="T T T"
N        2.19099350       0.00000000       0.00000000        0
N        0.00000000       2.19099350       0.00000000        1
N        0.00000000       0.00000000       2.19099350        2
N        2.19099350       2.19099350       2.19099350        3
Nb       0.00000000       0.00000000       0.00000000        4
Nb       2.19099350       2.19099350       0.00000000        5
Nb       2.19099350       0.00000000       2.19099350        6
Nb       0.00000000       2.19099350       2.19099350        7
