data_image0
_chemical_formula_structural       Sc4N4
_chemical_formula_sum              "Sc4 N4"
_cell_length_a       4.475153
_cell_length_b       4.475153
_cell_length_c       4.475153
_cell_angle_alpha    90.0
_cell_angle_beta     90.0
_cell_angle_gamma    90.0

_space_group_name_H-M_alt    "P 1"
_space_group_IT_number       1

loop_
  _space_group_symop_operation_xyz
  'x, y, z'

loop_
  _atom_site_type_symbol
  _atom_site_label
  _atom_site_symmetry_multiplicity
  _atom_site_fract_x
  _atom_site_fract_y
  _atom_site_fract_z
  _atom_site_occupancy
  Sc  Sc1       1.0  0.0  0.0  0.0  1.0000
  Sc  Sc2       1.0  0.5  0.5  0.0  1.0000
  Sc  Sc3       1.0  0.5  0.0  0.5  1.0000
  Sc  Sc4       1.0  0.0  0.5  0.5  1.0000
  N   N1        1.0  0.0  0.0  0.5  1.0000
  N   N2        1.0  0.5  0.0  0.0  1.0000
  N   N3        1.0  0.0  0.5  0.0  1.0000
  N   N4        1.0  0.5  0.5  0.5  1.0000
