4
Lattice="15.0 0.0 0.0 0.0 18.892998 0.0 0.0 0.0 17.200662" Properties=species:S:1:pos:R:3:forces:R:3 energy=-13.056254492517876 pbc="T T T"
S       14.82261731       3.97818068      -2.03168168      -0.00000000      -0.00000000      -0.00927668
Li      14.70104597       6.18180620      -2.30496006      -0.00000000       0.00868342       0.00000000
S       13.01365507       4.87383678      -2.92733778       0.00000000      -0.00000000       0.00927668
Li      13.13522640       2.67021125      -2.65405940       0.00000000      -0.00868342       0.00000000
