67
Lattice="8.302705832575977 0.0 0.0 0.0 8.302705832575977 0.0 0.0 0.0 21.227029376287987" Properties=species:S:1:pos:R:3:tags:I:1 pbc="T T T"
V        0.00000000       0.00000000       7.50000000        2
V        2.07567646       0.00000000       9.57567646        2
V        0.00000000       2.07567646       9.57567646        2
V        2.07567646       2.07567646       7.50000000        2
N        0.00000000       2.07567646       7.50000000        2
N        2.07567646       0.00000000       7.50000000        2
N        0.00000000       0.00000000       9.57567646        2
N        2.07567646       2.07567646       9.57567646        2
V        0.00000000       0.00000000      11.76479247        1
V        2.07525098       0.00000000      13.62901090        1
V        0.00000000       2.07525098      13.62901090        1
V        2.07571050       2.07571050      11.76465288        1
N       -0.00000000       2.07505193      11.68637186        1
N        2.07505193       0.00000000      11.68637186        1
N       -0.00000000       0.00000000      13.88930444        1
N        2.07489303       2.07489303      13.88890000        1
V        0.00000000       4.15135292       7.50000000        2
V        2.07567646       4.15135292       9.57567646        2
V        0.00000000       6.22702938       9.57567646        2
V        2.07567646       6.22702938       7.50000000        2
N        0.00000000       6.22702938       7.50000000        2
N        2.07567646       4.15135292       7.50000000        2
N        0.00000000       4.15135292       9.57567646        2
N        2.07567646       6.22702938       9.57567646        2
V        0.00000000       4.15135292      11.76459973        1
V        2.07523843       4.15135292      13.62922025        1
V        0.00000000       6.22745486      13.62901090        1
V        2.07571050       6.22699534      11.76465288        1
N       -0.00000000       6.22765391      11.68637186        1
N        2.07505368       4.15135292      11.68653000        1
N        0.00000000       4.15135292      13.88897042        1
N        2.07489303       6.22781281      13.88890000        1
V        4.15135292       0.00000000       7.50000000        2
V        6.22702938       0.00000000       9.57567646        2
V        4.15135292       2.07567646       9.57567646        2
V        6.22702938       2.07567646       7.50000000        2
N        4.15135292       2.07567646       7.50000000        2
N        6.22702938       0.00000000       7.50000000        2
N        4.15135292       0.00000000       9.57567646        2
N        6.22702938       2.07567646       9.57567646        2
V        4.15135292       0.00000000      11.76459973        1
V        6.22745486       0.00000000      13.62901090        1
V        4.15135292       2.07523843      13.62922025        1
V        6.22699534       2.07571050      11.76465288        1
N        4.15135292       2.07505368      11.68653000        1
N        6.22765391       0.00000000      11.68637186        1
N        4.15135292       0.00000000      13.88897042        1
N        6.22781281       2.07489303      13.88890000        1
V        4.15135292       4.15135292       7.50000000        2
V        6.22702938       4.15135292       9.57567646        2
V        4.15135292       6.22702938       9.57567646        2
V        6.22702938       6.22702938       7.50000000        2
N        4.15135292       6.22702938       7.50000000        2
N        6.22702938       4.15135292       7.50000000        2
N        4.15135292       4.15135292       9.57567646        2
N        6.22702938       6.22702938       9.57567646        2
V        4.15135292       4.15135292      11.76440017        1
V        6.22746741       4.15135292      13.62922025        1
V        4.15135292       6.22746741      13.62922025        1
V        6.22699534       6.22699534      11.76465288        1
N        4.15135292       6.22765216      11.68653000        1
N        6.22765216       4.15135292      11.68653000        1
N        4.15135292       4.15135292      13.88860957        1
N        6.22781281       6.22781281      13.88890000        1
S        2.24722331       3.29914828      18.88930444        0
Li       4.15135292       4.15135292      18.88930444        0
Li       1.39502422       1.39501626      18.88930444        0
