70
Lattice="8.204744329045042 0.0 0.0 0.0 8.204744329045042 0.0 0.0 0.0 21.15355824452252" Properties=species:S:1:pos:R:3:tags:I:1 pbc="T T T"
V        0.00000000       0.00000000       7.50000000        2
V        2.05118608       0.00000000       9.55118608        2
V        0.00000000       2.05118608       9.55118608        2
V        2.05118608       2.05118608       7.50000000        2
N        0.00000000       2.05118608       7.50000000        2
N        2.05118608       0.00000000       7.50000000        2
N        0.00000000       0.00000000       9.55118608        2
N        2.05118608       2.05118608       9.55118608        2
V        0.00000000       0.00000000      11.68626171        1
V        2.05105550       0.00000000      13.54899449        1
V        0.00000000       2.05105550      13.54899449        1
V        2.05120019       2.05120019      11.68622901        1
N        0.00000000       2.05090952      11.63299707        1
N        2.05090952       0.00000000      11.63299707        1
N        0.00000000       0.00000000      13.81628459        1
N        2.05083613       2.05083613      13.81628096        1
V        0.00000000       4.10237216       7.50000000        2
V        2.05118608       4.10237216       9.55118608        2
V        0.00000000       6.15355824       9.55118608        2
V        2.05118608       6.15355824       7.50000000        2
N        0.00000000       6.15355824       7.50000000        2
N        2.05118608       4.10237216       7.50000000        2
N        0.00000000       4.10237216       9.55118608        2
N        2.05118608       6.15355824       9.55118608        2
V        0.00000000       4.10237216      11.68622527        1
V        2.05105256       4.10237216      13.54910393        1
V        0.00000000       6.15368882      13.54899449        1
V        2.05120019       6.15354413      11.68622901        1
N        0.00000000       6.15383480      11.63299707        1
N        2.05090925       4.10237216      11.63307982        1
N        0.00000000       4.10237216      13.81624757        1
N        2.05083613       6.15390819      13.81628096        1
V        4.10237216       0.00000000       7.50000000        2
V        6.15355824       0.00000000       9.55118608        2
V        4.10237216       2.05118608       9.55118608        2
V        6.15355824       2.05118608       7.50000000        2
N        4.10237216       2.05118608       7.50000000        2
N        6.15355824       0.00000000       7.50000000        2
N        4.10237216       0.00000000       9.55118608        2
N        6.15355824       2.05118608       9.55118608        2
V        4.10237216       0.00000000      11.68622527        1
V        6.15368882       0.00000000      13.54899449        1
V        4.10237216       2.05105256      13.54910393        1
V        6.15354413       2.05120019      11.68622901        1
N        4.10237216       2.05090925      11.63307982        1
N        6.15383480       0.00000000      11.63299707        1
N        4.10237216       0.00000000      13.81624757        1
N        6.15390819       2.05083613      13.81628096        1
V        4.10237216       4.10237216       7.50000000        2
V        6.15355824       4.10237216       9.55118608        2
V        4.10237216       6.15355824       9.55118608        2
V        6.15355824       6.15355824       7.50000000        2
N        4.10237216       6.15355824       7.50000000        2
N        6.15355824       4.10237216       7.50000000        2
N        4.10237216       4.10237216       9.55118608        2
N        6.15355824       6.15355824       9.55118608        2
V        4.10237216       4.10237216      11.68618852        1
V        6.15369176       4.10237216      13.54910393        1
V        4.10237216       6.15369176      13.54910393        1
V        6.15354413       6.15354413      11.68622901        1
N        4.10237216       6.15383507      11.63307982        1
N        6.15383507       4.10237216      11.63307982        1
N        4.10237216       4.10237216      13.81620489        1
N        6.15390819       6.15390819      13.81628096        1
S        4.59938317       1.85937570      18.29797637        0
Li       4.10237216       4.10237216      18.81628459        0
S        1.82465716       3.80225977      18.29797637        0
Li       2.32166817       1.55926331      18.81628459        0
S        2.18031661       3.55322434      20.29469435        0
S        4.24372372       2.10841113      20.29469435        0
