70
Lattice="9.193848977410575 0.0 0.0 0.0 9.193848977410575 0.0 0.0 0.0 21.895386728705287" Properties=species:S:1:pos:R:3:tags:I:1 pbc="T T T"
Zr       0.00000000       0.00000000       7.50000000        2
Zr       2.29846224       0.00000000       9.79846224        2
Zr       0.00000000       2.29846224       9.79846224        2
Zr       2.29846224       2.29846224       7.50000000        2
N        0.00000000       2.29846224       7.50000000        2
N        2.29846224       0.00000000       7.50000000        2
N        0.00000000       0.00000000       9.79846224        2
N        2.29846224       2.29846224       9.79846224        2
Zr       0.00000000       0.00000000      12.08906098        1
Zr       2.29846238      -0.00000000      14.29170232        1
Zr      -0.00000000       2.29846238      14.29170232        1
Zr       2.29846241       2.29846241      12.08906100        1
N       -0.00000000       2.29846237      12.12485468        1
N        2.29846237      -0.00000000      12.12485468        1
N       -0.00000000       0.00000000      14.44981570        1
N        2.29846218       2.29846218      14.44981554        1
Zr       0.00000000       4.59692449       7.50000000        2
Zr       2.29846224       4.59692449       9.79846224        2
Zr       0.00000000       6.89538673       9.79846224        2
Zr       2.29846224       6.89538673       7.50000000        2
N        0.00000000       6.89538673       7.50000000        2
N        2.29846224       4.59692449       7.50000000        2
N        0.00000000       4.59692449       9.79846224        2
N        2.29846224       6.89538673       9.79846224        2
Zr      -0.00000000       4.59692449      12.08906091        1
Zr       2.29846241       4.59692449      14.29170220        1
Zr       0.00000000       6.89538659      14.29170232        1
Zr       2.29846241       6.89538656      12.08906100        1
N       -0.00000000       6.89538660      12.12485468        1
N        2.29846219       4.59692449      12.12485437        1
N       -0.00000000       4.59692449      14.44981513        1
N        2.29846218       6.89538679      14.44981554        1
Zr       4.59692449       0.00000000       7.50000000        2
Zr       6.89538673       0.00000000       9.79846224        2
Zr       4.59692449       2.29846224       9.79846224        2
Zr       6.89538673       2.29846224       7.50000000        2
N        4.59692449       2.29846224       7.50000000        2
N        6.89538673       0.00000000       7.50000000        2
N        4.59692449       0.00000000       9.79846224        2
N        6.89538673       2.29846224       9.79846224        2
Zr       4.59692449       0.00000000      12.08906091        1
Zr       6.89538659       0.00000000      14.29170232        1
Zr       4.59692449       2.29846241      14.29170220        1
Zr       6.89538656       2.29846241      12.08906100        1
N        4.59692449       2.29846219      12.12485437        1
N        6.89538660      -0.00000000      12.12485468        1
N        4.59692449       0.00000000      14.44981513        1
N        6.89538679       2.29846218      14.44981554        1
Zr       4.59692449       4.59692449       7.50000000        2
Zr       6.89538673       4.59692449       9.79846224        2
Zr       4.59692449       6.89538673       9.79846224        2
Zr       6.89538673       6.89538673       7.50000000        2
N        4.59692449       6.89538673       7.50000000        2
N        6.89538673       4.59692449       7.50000000        2
N        4.59692449       4.59692449       9.79846224        2
N        6.89538673       6.89538673       9.79846224        2
Zr       4.59692449       4.59692449      12.08906122        1
Zr       6.89538656       4.59692449      14.29170220        1
Zr       4.59692449       6.89538656      14.29170220        1
Zr       6.89538656       6.89538656      12.08906100        1
N        4.59692449       6.89538678      12.12485437        1
N        6.89538678       4.59692449      12.12485437        1
N        4.59692449       4.59692449      14.44981600        1
N        6.89538679       6.89538679      14.44981554        1
S        5.12121637       2.35682442      18.93992178        0
Li       4.59692449       4.59692449      19.44981600        0
S        2.31260060       4.32343835      18.93992178        0
Li       2.83689248       2.08333828      19.44981600        0
S        2.66959431       4.07346866      20.93333682        0
S        4.76422266       2.60679411      20.93333682        0
